LAMMPS (7 Feb 2024 - Update 1)
units real
boundary p p p
atom_style full
read_data lmp.data
Reading data file ...
  orthogonal box = (-100 -100 -100) to (100 100 100)
  reading atoms ...
  3281 atoms
  scanning bonds ...
  reading bonds ...
  3521 bonds
Finding 1-2 1-3 1-4 neighbors ...
    13 = max # of 1-2 neighbors
    81 = max # of 1-3 neighbors
   604 = max # of 1-4 neighbors
    41 = max # of special neighbors

bond_style harmonic
angle_style charmm
dihedral_style charmm
improper_style harmonic

kspace_style pppm 1e-4
pair_style hybrid lj/cut/coul/long 10.0

# 1  C
# 2  Fe
# 3  H
# 4  N
# 5  O
# 6  S

# Pair coefficients (unchanged)
pair_coeff 3 3 lj/cut/coul/long 0.5 2.846
pair_coeff 5 5 lj/cut/coul/long 0.2  2.85
pair_coeff 4 4 lj/cut/coul/long 0.17 3.250
pair_coeff 1 1 lj/cut/coul/long 0.12 3.30
pair_coeff 6 6 lj/cut/coul/long 0.27 3.59
pair_coeff 2 2 lj/cut/coul/long 0.013 2.32
pair_modify mix arithmetic
neigh_modify delay 1 every 1 check yes one 2000
bond_coeff 1 0 0

# Create results folder
variable results string "simulation_results"
shell rmdir simulation_results
shell mkdir simulation_results
shell cd simulation_results

# Define ligand region and group
region ligand_region block 48.5 50.5 -43.5 -41 12.9 14.7
group ligand_group region ligand_region
1 atoms in group ligand_group
set group ligand_group charge -0.5
Setting atom values ...
  1 settings made for charge

# Set Fe charge
set type 2 charge 5  # Warning: Extremely high charge (verify if intentional)
Setting atom values ...
  1 settings made for charge

# Define groups for Fe and charged O
group Fe_Atoms type 2
1 atoms in group Fe_Atoms
#group O_ligand type 5 region ligand_region  # Critical: Only 1 O in this region

# Verify groups contain exactly 1 atom each
variable Fe_count equal count(Fe_Atoms)
variable O_count equal count(ligand_group)
Fe atoms: 1, O in ligand: 1

# Compute coordinates using global averages (works for single-atom groups)
compute Fe_x Fe_Atoms property/atom xs
compute Fe_y Fe_Atoms property/atom yu
compute Fe_z Fe_Atoms property/atom zu
compute O_x ligand_group property/atom xu
compute O_y ligand_group property/atom yu
compute O_z ligand_group property/atom zu

compute Fe_avg all reduce ave c_Fe_x c_Fe_y c_Fe_z
compute O_avg all reduce ave c_O_x c_O_y c_O_z

# Calculate distance
#variable dx equal c_O_x-c_Fe_x
variable dx equal c_O_avg[1]-c_Fe_avg[1]
variable dy equal c_O_avg[2]-c_Fe_avg[2]
variable dz equal c_O_avg[3]-c_Fe_avg[3]
variable distance equal v_dx#sqrt(v_dx^2+v_dy^2+v_dz^2)

# Output
dump 1 all custom 100 dmp.*.txt id type x y z mass
thermo_style custom step temp press lx ke pe etotal density v_distance
thermo 100

# Simulation
minimize 0.0 0.0 1000 10000
PPPM initialization ...
  G vector (1/distance) = 0.17549664
  grid = 40 40 40
  stencil order = 5
  estimated absolute RMS force accuracy = 0.0021284123
  estimated relative force accuracy = 6.4096503e-06
  3d grid and FFT values/proc = 91125 64000
Generated 15 of 15 mixed pair_coeff terms from arithmetic mixing rule
Step          Temp          Press            Lx           KinEng         PotEng         TotEng        Density       v_distance
0   0              909122.13      200            0              26480286       26480286       0.0046049851   0.014756469
Averages over the last 6 of 11 rows, steps 500 to 1000:
Temp Press Lx KinEng PotEng TotEng Density v_distance
0 -77.0489 200 0 -21128.6 -21128.6 0.00460499 0.0145631
Loop time of 86.9844 on 1 procs for 1000 steps with 3281 atoms

Minimization stats:
  Stopping criterion = max iterations
  Energy initial, next-to-last, final =
  Force two-norm initial, final = 3.2101261e+08 58.438902
  Force max component initial, final = 1.5469702e+08 4.389112
  Final line search alpha, max atom move = 0.00071620957 0.003143524
  Iterations, force evaluations = 1000 5965

velocity all create 300.0 1234567 mom yes rot yes dist gaussian
fix 1 all nve
timestep 0.1
run 30000
PPPM initialization ...
  G vector (1/distance) = 0.17549664
  grid = 40 40 40
  stencil order = 5
  estimated absolute RMS force accuracy = 0.0021284123
  estimated relative force accuracy = 6.4096503e-06
  3d grid and FFT values/proc = 91125 64000
Generated 15 of 15 mixed pair_coeff terms from arithmetic mixing rule
Step          Temp          Press            Lx           KinEng         PotEng         TotEng        Density       v_distance
1000   300           -56.738596      200            2933.1171     -21469.272     -18536.155      0.0046049851   0.014548649
Averages over the last 151 of 301 rows, steps 16000 to 31000:
Temp Press Lx KinEng PotEng TotEng Density v_distance
421.598 1.03618 200 4121.99 -22730.5 -18608.6 0.00460499 0.00834269
Loop time of 350.234 on 1 procs for 30000 steps with 3281 atoms
