LAMMPS (7 Feb 2024 - Update 1)
#slide 41
units real

#slide 42
boundary p p p

#slide 43
atom_style full
bond_style harmonic
angle_style charmm
dihedral_style charmm
improper_style harmonic
special_bonds charmm
pair_style lj/charmm/coul/long 10 12
pair_modify mix arithmetic
kspace_style pppm 0.0001
neigh_modify delay 1 every 1 check yes

#slide 51
#read data-file:
read_data solvate.data
Reading data file ...
  orthogonal box = (-10.011 -10.0065 -9.92) to (9.989 9.9935 10.08)
  reading atoms ...
  699 atoms
  scanning bonds ...
  scanning angles ...
  reading bonds ...
  466 bonds
  reading angles ...
  233 angles
Finding 1-2 1-3 1-4 neighbors ...
     2 = max # of 1-2 neighbors
     1 = max # of 1-3 neighbors
     1 = max # of 1-4 neighbors
     2 = max # of special neighbors
#make folder for the results:
variable results string "simulation_results"
variable el_results string "simulation_results_el"
shell mkdir simulation_results
shell cd simulation_results

#slide 52
thermo_style custom step temp press lx ke pe etotal density
thermo          100
#energy minimisation:
minimize 0.0 0.0 1000 10000
PPPM initialization ...
  G vector (1/distance) = 0.22290628
  grid = 9 9 9
  stencil order = 5
  estimated absolute RMS force accuracy = 0.021767541
  estimated relative force accuracy = 6.5552303e-05
  3d grid and FFT values/proc = 2744 729
Generated 1 of 1 mixed pair_coeff terms from arithmetic mixing rule
Step          Temp          Press            Lx           KinEng         PotEng         TotEng        Density
0   0              6646990        20             0              192002.37      192002.37      0.87128232
Loop time of 5.90324 on 1 procs for 606 steps with 699 atoms

Minimization stats:
  Stopping criterion = linesearch alpha is zero
  Energy initial, next-to-last, final =
  Force two-norm initial, final = 3433745.7 4.0505473
  Force max component initial, final = 2548441.3 0.72266883
  Final line search alpha, max atom move = 6.2938338e-10 4.5483575e-10
  Iterations, force evaluations = 606 1264

velocity all create 300.0 1234567 mom yes rot yes dist gaussian
#equilibration at NVT:
fix 1 all nvt temp 300.0 300.0 100
timestep 0.001
run 2000
PPPM initialization ...
  G vector (1/distance) = 0.22290628
  grid = 9 9 9
  stencil order = 5
  estimated absolute RMS force accuracy = 0.021767541
  estimated relative force accuracy = 6.5552303e-05
  3d grid and FFT values/proc = 2744 729
Generated 1 of 1 mixed pair_coeff terms from arithmetic mixing rule
Step          Temp          Press            Lx           KinEng         PotEng         TotEng        Density
606   300           -627.60855      20             624.18162     -2936.2199     -2312.0382      0.87128232
Averages over the last 11 of 22 rows, steps 1700 to 2606:
Temp Press Lx KinEng PotEng TotEng Density
241.155 -1033.25 20 501.748 -2813.74 -2311.99 0.871282
Loop time of 6.86842 on 1 procs for 2000 steps with 699 atoms

unfix 1
#equilibration at NpT:
fix 1 all npt temp 300.0 300.0 100 iso 1.0 1.0 1000
run 5000
PPPM initialization ...
  G vector (1/distance) = 0.22290628
  grid = 9 9 9
  stencil order = 5
  estimated absolute RMS force accuracy = 0.021767541
  estimated relative force accuracy = 6.5552303e-05
  3d grid and FFT values/proc = 2744 729
Generated 1 of 1 mixed pair_coeff terms from arithmetic mixing rule
Step          Temp          Press            Lx           KinEng         PotEng         TotEng        Density
2606   220.74877     -1509.3392      20             459.29108     -2771.276      -2311.985       0.87128232
Averages over the last 26 of 52 rows, steps 5200 to 7606:
Temp Press Lx KinEng PotEng TotEng Density
207.897 -3361.03 19.9999 432.552 -2744.37 -2311.81 0.871296
Loop time of 17.6025 on 1 procs for 5000 steps with 699 atoms

unfix 1

#initialization for md
reset_timestep 0
fix main_fix all npt temp 300.0 300.0 100 iso 1.0 1.0 1000
group hydrogens type 1
466 atoms in group hydrogens
group oxygens type 2
233 atoms in group oxygens
#md without electrical field:
#                           O-O H-O
compute get_rdf all rdf 100 2 2 1 2
compute get_msd_ox oxygens msd com yes
compute get_vacf all vacf

fix rdf_output all ave/time 100 40 4000 c_get_rdf[*] ave running file RDF.txt mode vector
fix msd_output all print 100 "$(step) $(c_get_msd_ox[4])" file MSD.txt
fix vacf_output all print 1 "$(step) $(c_get_vacf[4])" file VACF.txt screen no
fix verbose all print 100 "$(step) $(temp) $(density)" file T_and_rho.txt screen no

dump data_dump all custom 10 dump.*.txt mol type x y z xu yu zu vx vy vz
dump_modify data_dump sort id

run 10000
PPPM initialization ...
  G vector (1/distance) = 0.2229069
  grid = 9 9 9
  stencil order = 5
  estimated absolute RMS force accuracy = 0.021766967
  estimated relative force accuracy = 6.5550573e-05
  3d grid and FFT values/proc = 2744 729
Generated 1 of 1 mixed pair_coeff terms from arithmetic mixing rule
0 1.4570610595571004505e-31
Step          Temp          Press            Lx           KinEng         PotEng         TotEng        Density
0   166.75168     -3605.0602      19.999824      346.94445     -2658.6221     -2311.6776      0.87130533
100 3.8164619792103657631e-07
200 1.5251554939780437872e-06
300 3.4287008468371431913e-06
400 6.0908889768214587193e-06
500 9.510766905900660482e-06
600 1.3687819283104765496e-05
700 1.8621956392577821272e-05
800 2.4313493033472656084e-05
900 3.0763118482204268968e-05
1000 3.7971857591429930827e-05
1100 4.594102394246031844e-05
1200 5.4672165395752189536e-05
1300 6.4167002935361329083e-05
1400 7.4427363609513548862e-05
1500 8.5455108575324242241e-05
1600 9.7252057553540014649e-05
1700 0.00010981991068316612542
1800 0.00012316016890158380651
1900 0.00013727405379571197205
2000 0.00015216242948271269716
2100 0.00016782572607214281185
2200 0.00018426386745237714857
2300 0.00020147620349734464678
2400 0.00021946144842916942628
2500 0.00023821762573789846706
2600 0.00025774202141060911179
2700 0.00027803114644819583662
2800 0.00029908070770945106289
2900 0.00032088559017296922581
3000 0.00034343984968616026072
3100 0.00036673671566734455289
3200 0.00039076860547275537108
3300 0.00041552714911142661029
3400 0.00044100322541562429627
3500 0.00046718700788276858659
3600 0.00049406802142600383422
3700 0.00052163520761093864261
3800 0.00054987699815137853175
3900 0.00057878139704794432773
4000 0.00060833606799055698917
4100 0.00063852842747558593087
4200 0.00066934574174387303797
4300 0.0007007752274586494072
4400 0.00073280415324846110738
4500 0.00076541994140782022675
4600 0.0007986102689040331
4700 0.00083236316532662730627
4800 0.00086666710714886541125
4900 0.00090151110813116962228
5000 0.00093688480180501747859
5100 0.00097277851685248039985
5200 0.0010091833451200435227
5300 0.0010460911998570398499
5400 0.0010834948658629752361
5500 0.0011213880365205262588
5600 0.0011597653410831015343
5700 0.0011986223628064117484
5800 0.0012379556425479946308
5900 0.0012777626741755805911
6000 0.0013180418887475740634
6100 0.001358792626091360773
6200 0.001400015097153134826
6300 0.0014417103387567796989
6400 0.001483880158166730719
6500 0.0015265270695601030823
6600 0.001569654225038416475
6700 0.0016132653391993626198
6800 0.0016573646105659310766
6900 0.0017019566388458591544
7000 0.0017470463407659442539
7100 0.0017926388636572143653
7200 0.0018387395016468510538
7300 0.0018853536117717918479
7400 0.0019324865329504263816
7500 0.0019801435106204037795
7600 0.0020283296243067835095
7700 0.0020770497242408271152
7800 0.0021263083723098985534
7900 0.0021761097903909422217
8000 0.0022264578152894200051
8100 0.0022773558653760104381
8200 0.0023288069153400078881
8300 0.002380813476593432107
8400 0.0024333775895452065124
8500 0.0024865008235659341942
8600 0.0025401842848185190483
8700 0.0025944286314798998064
8800 0.0026492340965023719428
8900 0.0027046005182045306479
9000 0.0027605273743505544942
9100 0.0028170138231580453547
9200 0.002874058746797842831
9300 0.0029316607972713136336
9400 0.0029898184443812197454
9500 0.0030485300265187995593
9600 0.0031077937999489384409
9700 0.0031676079839563762476
9800 0.0032279708043374249343
9900 0.00328888053817604116
10000 0.0033503355491600302421
Loop time of 37.0547 on 1 procs for 10000 steps with 699 atoms

#md with electrical field:
shell cd ..
shell mkdir simulation_results_el
shell cd simulation_results_el
fix f_electr all efield 0.0 0.0 0.05
compute get_vacf_el all vacf

fix vacf_output all print 1 "$(step) $(c_get_vacf_el[4])" file VACF_el.txt screen no

dump data_dump_el all custom 10 dump_el.*.txt mol type x y z xu yu zu vx vy vz
dump_modify data_dump_el sort id

run 10000
PPPM initialization ...
  G vector (1/distance) = 0.22290675
  grid = 9 9 9
  stencil order = 5
  estimated absolute RMS force accuracy = 0.021767103
  estimated relative force accuracy = 6.5550985e-05
  3d grid and FFT values/proc = 2744 729
Generated 1 of 1 mixed pair_coeff terms from arithmetic mixing rule
10000 0.0033503355491600267727
Step          Temp          Press            Lx           KinEng         PotEng         TotEng        Density
10000   120.88569     -550.79974      19.999866      251.51541     -2561.8151     -2310.2997      0.87129986
10100 0.003412334318498950244
10200 0.0034748754696978826836
10300 0.0035379577882198548315
10400 0.0036015802315986587129
10500 0.0036657419332051673598
10600 0.0037304421986874922862
10700 0.0037956804947494654154
10800 0.0038614564299838264119
10900 0.0039277697256638833753
11000 0.0039946201826870277735
11100 0.0040620076412611911404
11200 0.0041299319312808144972
11300 0.0041983928197672840121
11400 0.0042673899535732228924
11500 0.0043369227992565784549
11600 0.0044069905782845976774
11700 0.0044775922021982527896
11800 0.0045487262047392207007
11900 0.0046203906786308601012
12000 0.0046925832129608375035
12100 0.0047653008354373469976
12200 0.0048385399541857618613
12300 0.0049122963076486643799
12400 0.0049865649204480916312
12500 0.0050613400660228062555
12600 0.0051366152393177927707
12700 0.0052123831371745634952
12800 0.0052886356496592776266
12900 0.0053653638611813403783
13000 0.0054425580570920126591
13100 0.0055202077445726908944
13200 0.0055983016835262182365
13300 0.0056768279315939926613
13400 0.0057557738933122675265
13500 0.0058351263832050071639
13600 0.0059148716957262243918
13700 0.0059949956833766976025
13800 0.0060754838425202701419
13900 0.0061563214059036797804
14000 0.0062374934401432770639
14100 0.0063189849477525124669
14200 0.0064007809720340660964
14300 0.0064828667057410258381
14400 0.0065652275975154111495
14500 0.0066478494573646036009
14600 0.0067307185608639465493
14700 0.006813821748019305638
14800 0.006897146521433587113
14900 0.0069806811332941377454
15000 0.0070644146674446375161
15100 0.0071483371125211315686
15200 0.0072324394280328793347
15300 0.0073167136009671196809
15400 0.0074011526886934323952
15500 0.0074857508512448317842
15600 0.0075705033741215168805
15700 0.0076554066797013629181
15800 0.007740458323270050893
15900 0.0078256569821345215582
16000 0.0079110024299354850946
16100 0.0079964955054182725036
16200 0.0080821380668344034587
16300 0.008167932935891882365
16400 0.0082538838372847467967
16500 0.0083399953277183518086
16600 0.0084262727198947187657
16700 0.0085127219985100185951
16800 0.0085993497353033486463
16900 0.0086861629977458190005
17000 0.0087731692580078433213
17100 0.0088603763027519828743
17200 0.0089477921399947080855
17300 0.0090354249106428183302
17400 0.0091232828024212717088
17500 0.0092113739665629391917
17600 0.0092997064410818876257
17700 0.0093882880812107011997
17800 0.0094771264939661203908
17900 0.0095662289780585833127
18000 0.0096556024780157737736
18100 0.0097452535423558309807
18200 0.0098351882896726677136
18300 0.0099254123853891335766
18400 0.010015931024036946531
18500 0.01010674892520849015
18600 0.010197870330738314712
18700 0.010289299017142141887
18800 0.010381038307621810388
18900 0.010473091091775875439
19000 0.01056545985612055219
19100 0.010658146713152030771
19200 0.010751153436614816622
19300 0.010844481497076221763
19400 0.010938132100545252395
19500 0.011032106227201122356
19600 0.011126404668782759536
19700 0.011221028067362527961
19800 0.011315976949197288637
19900 0.011411251760638034189
20000 0.01150685289168269787
Loop time of 38.0202 on 1 procs for 10000 steps with 699 atoms
